@<TRIPOS>MOLECULE
2PG
   18    17     1     0     0
SMALL
bcc


@<TRIPOS>ATOM
      1 C1          1.9190   -0.8070   -0.0780 C.2       1 2PG      0.617100
      2 C2          0.8600    0.2520    0.0870 C.3       1 2PG      0.107100
      3 C3          1.4660    1.6260   -0.2030 C.3       1 2PG      0.133400
      4 P1         -1.5360   -0.2090    0.0620 P.3       1 2PG      1.648500
      5 O1          1.7720   -1.6860   -0.8930 O.2       1 2PG     -0.534000
      6 O2          3.0260   -0.7730    0.6790 O.3       1 2PG     -0.602100
      7 O3          0.4610    2.6310   -0.0460 O.3       1 2PG     -0.589800
      8 O4         -0.2100    0.0020   -0.8240 O.3       1 2PG     -0.584200
      9 O5         -1.7970    1.0120    0.8560 O.2       1 2PG     -0.806300
     10 O6         -2.7900   -0.4970   -0.9060 O.3       1 2PG     -0.751900
     11 O7         -1.3260   -1.4590    1.0540 O.3       1 2PG     -0.751900
     12 H1          0.4810    0.2290    1.1080 H         1 2PG      0.116700
     13 H2          1.8450    1.6490   -1.2240 H         1 2PG      0.072200
     14 H3          2.2830    1.8180    0.4920 H         1 2PG      0.072200
     15 H4          3.7060   -1.4530    0.5730 H         1 2PG      0.453000
     16 H5          0.8840    3.4800   -0.2370 H         1 2PG      0.413000
     17 H6         -3.5610   -0.6160   -0.3360 H         1 2PG      0.494000
     18 H7         -1.1590   -2.2320    0.4980 H         1 2PG      0.494000
@<TRIPOS>BOND
     1    1    2 1   
     2    1    5 2   
     3    1    6 1   
     4    2    3 1   
     5    2    8 1   
     6    2   12 1   
     7    3    7 1   
     8    3   13 1   
     9    3   14 1   
    10    4    8 1   
    11    4    9 2   
    12    4   10 1   
    13    4   11 1   
    14    6   15 1   
    15    7   16 1   
    16   10   17 1   
    17   11   18 1   
@<TRIPOS>SUBSTRUCTURE
     1 2PG         1 TEMP              0 ****  ****    0 ROOT
