@<TRIPOS>MOLECULE

   70    74     1     0     1 
SMALL
USER_CHARGES
@<TRIPOS>ATOM
  1 P1     -2.698000    4.180000   -1.104000 P     1 NAD     0.9426 ****
  2 O1     -3.659000    4.658000   -0.119000 O     1 NAD    -0.7304 ****
  3 O2     -2.527000    5.021000   -2.282000 O     1 NAD    -0.7304 ****
  4 O3     -3.244000    2.642000   -1.213000 O     1 NAD    -0.3568 ****
  5 C1     -2.991000    1.674000   -2.208000 C     1 NAD    -0.0067 ****
  6 C2     -4.248000    0.896000   -2.593000 C     1 NAD     0.0794 ****
  7 O4     -4.693000   -0.075000   -1.649000 O     1 NAD    -0.3928 ****
  8 C3     -5.474000    1.777000   -2.860000 C     1 NAD     0.1170 ****
  9 O5     -5.757000    1.925000   -4.253000 O     1 NAD    -0.6429 ****
 10 C4     -6.644000    1.018000   -2.238000 C     1 NAD     0.1030 ****
 11 O6     -7.878000    1.077000   -2.973000 O     1 NAD    -0.6322 ****
 12 C5     -6.019000   -0.349000   -2.115000 C     1 NAD     0.0613 ****
 13 N1     -6.768000   -1.302000   -1.281000 N     1 NAD     0.0178 ****
 14 C6     -7.182000   -1.144000   -0.011000 C     1 NAD     0.0624 ****
 15 N2     -7.710000   -2.288000    0.458000 N     1 NAD    -0.6361 ****
 16 C7     -7.598000   -3.121000   -0.564000 C     1 NAD     0.1458 ****
 17 C8     -7.979000   -4.453000   -0.540000 C     1 NAD     0.6473 ****
 18 N3     -8.549000   -5.017000    0.523000 N     1 NAD    -0.8681 ****
 19 N4     -7.743000   -5.119000   -1.679000 N     1 NAD    -0.7590 ****
 20 C9     -7.195000   -4.567000   -2.767000 C     1 NAD     0.5320 ****
 21 N5     -6.838000   -3.286000   -2.782000 N     1 NAD    -0.7533 ****
 22 C10    -7.028000   -2.545000   -1.671000 C     1 NAD     0.4102 ****
 23 O7     -1.318000    4.025000   -0.411000 O     1 NAD    -0.4180 ****
 24 P2      0.189000    4.189000   -0.810000 P     1 NAD     1.2778 ****
 25 O8      0.674000    5.512000   -0.420000 O     1 NAD    -0.8075 ****
 26 O9      0.447000    3.748000   -2.197000 O     1 NAD    -0.8075 ****
 27 O10     0.816000    3.189000    0.321000 O     1 NAD    -0.5906 ****
 28 C11     0.476000    1.787000    0.337000 C     1 NAD     0.0309 ****
 29 C12     0.977000    1.069000    1.585000 C     1 NAD     0.0992 ****
 30 O11     2.405000    1.179000    1.506000 O     1 NAD    -0.3692 ****
 31 C13     0.578000    1.718000    2.905000 C     1 NAD     0.1382 ****
 32 O12     0.352000    0.796000    3.988000 O     1 NAD    -0.6826 ****
 33 C14     1.780000    2.582000    3.237000 C     1 NAD     0.1244 ****
 34 O13     1.825000    2.996000    4.608000 O     1 NAD    -0.6417 ****
 35 C15     2.866000    1.651000    2.780000 C     1 NAD     0.0281 ****
 36 N6      4.185000    2.238000    2.573000 N     1 NAD     0.0974 ****
 37 C16     5.315000    1.540000    2.990000 C     1 NAD    -0.0159 ****
 38 C17     6.589000    2.021000    2.703000 C     1 NAD    -0.0460 ****
 39 C18     7.834000    1.261000    3.117000 C     1 NAD     0.6456 ****
 40 O14     8.888000    1.861000    3.172000 O     1 NAD    -0.5505 ****
 41 N7      7.740000   -0.022000    3.392000 N     1 NAD    -0.7879 ****
 42 C19     6.716000    3.222000    2.009000 C     1 NAD    -0.0362 ****
 43 C20     5.582000    3.927000    1.602000 C     1 NAD    -0.1304 ****
 44 C21     4.305000    3.500000    1.969000 C     1 NAD     0.0862 ****
 45 H51    -2.218000    0.986000   -1.868000 H     1 NAD     0.0577 ****
 46 H52    -2.632000    2.192000   -3.097000 H     1 NAD     0.0577 ****
 47 H53    -4.030000    0.355000   -3.514000 H     1 NAD     0.1639 ****
 48 H54    -5.365000    2.752000   -2.385000 H     1 NAD     0.1470 ****
 49 H55    -6.558000    2.446000   -4.348000 H     1 NAD     0.4461 ****
 50 H56    -6.812000    1.404000   -1.233000 H     1 NAD     0.0583 ****
 51 H57    -8.536000    0.557000   -2.506000 H     1 NAD     0.4094 ****
 52 H58    -5.939000   -0.771000   -3.116000 H     1 NAD     0.1690 ****
 53 H60    -7.112000   -0.223000    0.549000 H     1 NAD     0.2229 ****
 54 H64    -8.711000   -4.470000    1.358000 H     1 NAD     0.3908 ****
 55 H65    -8.810000   -5.993000    0.497000 H     1 NAD     0.3908 ****
 56 H67    -7.048000   -5.168000   -3.650000 H     1 NAD     0.0783 ****
 57 H73     0.898000    1.307000   -0.546000 H     1 NAD     0.1103 ****
 58 H74    -0.609000    1.694000    0.300000 H     1 NAD     0.1103 ****
 59 H75     0.668000    0.025000    1.569000 H     1 NAD     0.0794 ****
 60 H76    -0.309000    2.337000    2.769000 H     1 NAD     0.1238 ****
 61 H77     0.149000    1.300000    4.780000 H     1 NAD     0.4471 ****
 62 H78     1.776000    3.460000    2.591000 H     1 NAD     0.1682 ****
 63 H79     2.620000    3.516000    4.743000 H     1 NAD     0.4304 ****
 64 H80     2.936000    0.816000    3.477000 H     1 NAD     0.1791 ****
 65 H92     5.200000    0.596000    3.543000 H     1 NAD     0.1480 ****
 66 H86     6.869000   -0.202000    3.849000 H     1 NAD     0.3796 ****
 67 H87     8.494000   -0.290000    3.992000 H     1 NAD     0.3796 ****
 68 H90     7.717000    3.622000    1.789000 H     1 NAD     0.1876 ****
 69 H89     5.696000    4.835000    0.992000 H     1 NAD     0.1833 ****
 70 H81     3.420000    4.126000    1.782000 H     1 NAD     0.2271 ****
@<TRIPOS>BOND
    1     1    23 1
    2     1     2 1
    3     1     3 1
    4     1     4 1
    5     4     5 1
    6     5     6 1
    7     5    45 1
    8     5    46 1
    9     6     8 1
   10     6     7 1
   11     6    47 1
   12     7    12 1
   13     8    10 1
   14     8     9 1
   15     8    48 1
   16     9    49 1
   17    10    12 1
   18    10    50 1
   19    10    11 1
   20    11    51 1
   21    12    52 1
   22    12    13 1
   23    13    14 1
   24    13    22 1
   25    14    53 1
   26    14    15 1
   27    15    16 1
   28    16    22 1
   29    16    17 1
   30    17    19 1
   31    17    18 1
   32    18    54 1
   33    18    55 1
   34    19    20 1
   35    20    21 1
   36    20    56 1
   37    21    22 1
   38    23    24 1
   39    24    27 1
   40    24    25 1
   41    24    26 1
   42    27    28 1
   43    28    29 1
   44    28    58 1
   45    28    57 1
   46    29    30 1
   47    29    31 1
   48    29    59 1
   49    30    35 1
   50    31    33 1
   51    31    32 1
   52    31    60 1
   53    32    61 1
   54    33    35 1
   55    33    34 1
   56    33    62 1
   57    34    63 1
   58    35    36 1
   59    35    64 1
   60    36    44 1
   61    36    37 1
   62    37    38 1
   63    37    65 1
   64    38    39 1
   65    38    42 1
   66    39    41 1
   67    39    40 1
   68    41    66 1
   69    41    67 1
   70    42    43 1
   71    42    68 1
   72    43    44 1
   73    43    69 1
   74    44    70 1
@<TRIPOS>SUBSTRUCTURE
      1  NAD              1 ****               0 ****  **** 
