@<TRIPOS>MOLECULE
F6P
   27    27     1     0     1 
SMALL
USER_CHARGES
@<TRIPOS>ATOM
  1 O1     -2.830000   -2.817000   -0.508000 O     1 F6P    -0.6731 ****
  2 H1     -3.377000   -3.344000   -1.108000 H     1 F6P     0.4264 ****
  3 C1     -3.139000   -1.446000   -0.766000 C     1 F6P     0.1064 ****
  4 H2     -2.910000   -1.211000   -1.806000 H     1 F6P     0.0125 ****
  5 H3     -4.198000   -1.270000   -0.579000 H     1 F6P     0.0125 ****
  6 C2     -2.304000   -0.553000    0.152000 C     1 F6P     0.5460 ****
  7 O2     -2.585000   -0.866000    1.518000 O     1 F6P    -0.6934 ****
  8 H4     -2.365000   -1.799000    1.642000 H     1 F6P     0.4607 ****
  9 O5     -0.910000   -0.751000   -0.113000 O     1 F6P    -0.4615 ****
 10 C3     -2.627000    0.930000   -0.122000 C     1 F6P     0.2182 ****
 11 O3     -3.519000    1.454000    0.863000 O     1 F6P    -0.6806 ****
 12 H6     -3.607000    2.401000    0.686000 H     1 F6P     0.4036 ****
 13 H5     -3.041000    1.058000   -1.123000 H     1 F6P    -0.0211 ****
 14 C4     -1.228000    1.597000   -0.013000 C     1 F6P     0.1307 ****
 15 O4     -1.151000    2.773000   -0.821000 O     1 F6P    -0.6971 ****
 16 H8     -1.737000    3.428000   -0.415000 H     1 F6P     0.4072 ****
 17 H7     -0.979000    1.819000    1.024000 H     1 F6P     0.0552 ****
 18 C5     -0.320000    0.474000   -0.576000 C     1 F6P     0.3054 ****
 19 H9     -0.315000    0.504000   -1.666000 H     1 F6P     0.0187 ****
 20 C6      1.103000    0.616000   -0.033000 C     1 F6P     0.3080 ****
 21 H10     1.527000    1.562000   -0.371000 H     1 F6P     0.0003 ****
 22 H11     1.080000    0.597000    1.055000 H     1 F6P     0.0003 ****
 23 O6      1.905000   -0.463000   -0.513000 O     1 F6P    -0.6387 ****
 24 P1      3.381000   -0.251000    0.092000 P     1 F6P     1.3882 ****
 25 O8      4.344000   -1.440000   -0.410000 O     1 F6P    -0.9782 ****
 26 O9      3.969000    1.161000   -0.407000 O     1 F6P    -0.9782 ****
 27 O7      3.315000   -0.262000    1.570000 O     1 F6P    -0.9782 ****
@<TRIPOS>BOND
    1     1     2 1
    2     1     3 1
    3     3     4 1
    4     3     5 1
    5     3     6 1
    6     6     7 1
    7     6     9 1
    8     6    10 1
    9     7     8 1
   10     9    18 1
   11    10    11 1
   12    10    13 1
   13    10    14 1
   14    11    12 1
   15    14    15 1
   16    14    17 1
   17    14    18 1
   18    15    16 1
   19    18    19 1
   20    18    20 1
   21    20    21 1
   22    20    22 1
   23    20    23 1
   24    23    24 1
   25    24    25 1
   26    24    26 1
   27    24    27 1
@<TRIPOS>SUBSTRUCTURE
      1  F6P              1 ****               0 ****  **** 
