@<TRIPOS>MOLECULE
MOL
    7     6     1     0     0
SMALL
bcc


@<TRIPOS>ATOM
      1 P1         -0.0710   -0.0420    0.0120 P.3       1 MOL      1.428800
      2 O1         -1.3860   -0.3120   -0.6630 O.co2     1 MOL     -0.849500
      3 O2         -0.2720    0.2090    1.4880 O.co2     1 MOL     -0.849500
      4 O3          0.9120   -1.1260   -0.2500 O.3       1 MOL     -0.783400
      5 O4          0.4950    1.2500   -0.5980 O.3       1 MOL     -0.783400
      6 H1          1.7430   -0.9560    0.1780 H         1 MOL      0.418000
      7 H2          1.3260    1.4200   -0.1700 H         1 MOL      0.418000
@<TRIPOS>BOND
     1    1    2 1   
     2    1    3 1   
     3    1    4 1   
     4    1    5 1   
     5    4    6 1   
     6    5    7 1   
@<TRIPOS>SUBSTRUCTURE
     1 MOL         1 TEMP              0 ****  ****    0 ROOT
