@<TRIPOS>MOLECULE

   71    75     1     0     1 
SMALL
USER_CHARGES
@<TRIPOS>ATOM
  1 P1     29.688000    1.942000    4.414000 P     1 NAD     0.9423 ****
  2 O1     30.673000    1.785000    5.494000 O     1 NAD    -0.7518 ****
  3 O2     29.632000    1.051000    3.181000 O     1 NAD    -0.7518 ****
  4 O3     29.772000    3.399000    3.790000 O     1 NAD    -0.3937 ****
  5 C1     30.388000    4.502000    4.589000 C     1 NAD     0.0186 ****
  6 C2     31.333000    5.173000    3.693000 C     1 NAD     0.0644 ****
  7 O4     31.903000    6.395000    4.283000 O     1 NAD    -0.4086 ****
  8 C3     32.579000    4.345000    3.210000 C     1 NAD     0.2910 ****
  9 O5     32.560000    4.254000    1.721000 O     1 NAD    -0.6566 ****
 10 C4     33.793000    5.055000    3.678000 C     1 NAD     0.1730 ****
 11 O6     34.933000    5.108000    2.982000 O     1 NAD    -0.6054 ****
 12 C5     33.210000    6.475000    3.934000 C     1 NAD     0.1490 ****
 13 N1     33.920000    7.164000    4.979000 N     1 NAD     0.0037 ****
 14 C6     34.495000    6.744000    6.156000 C     1 NAD     0.0746 ****
 15 N2     35.093000    7.627000    6.913000 N     1 NAD    -0.5948 ****
 16 C7     34.933000    8.767000    6.211000 C     1 NAD     0.1648 ****
 17 C8     35.385000   10.152000    6.529000 C     1 NAD     0.5586 ****
 18 N3     36.046710   10.524996    7.632815 N     1 NAD    -0.7779 ****
 19 N4     35.039000   11.038000    5.587000 N     1 NAD    -0.7408 ****
 20 C9     34.364000   10.804000    4.450000 C     1 NAD     0.5123 ****
 21 N5     33.908000    9.544000    4.080000 N     1 NAD    -0.6834 ****
 22 C10    34.218000    8.533000    5.006000 C     1 NAD     0.2876 ****
 23 O7     28.267000    1.898000    5.034000 O     1 NAD    -0.3893 ****
 24 P2     26.737000    1.982000    4.539000 P     1 NAD     1.0858 ****
 25 O8     26.134000    0.656000    4.660000 O     1 NAD    -0.7728 ****
 26 O9     26.533000    2.682000    3.259000 O     1 NAD    -0.7728 ****
 27 O10    26.160000    2.825000    5.758000 O     1 NAD    -0.4304 ****
 28 C11    26.283000    4.284000    5.943000 C     1 NAD     0.0271 ****
 29 C12    25.943000    4.621000    7.342000 C     1 NAD     0.0603 ****
 30 O11    24.428000    4.718000    7.411000 O     1 NAD    -0.3914 ****
 31 C13    26.304000    3.638000    8.520000 C     1 NAD     0.2419 ****
 32 O12    26.800000    4.415000    9.567000 O     1 NAD    -0.6882 ****
 33 C14    24.992000    2.847000    8.843000 C     1 NAD     0.0851 ****
 34 O13    24.889000    2.404000   10.174000 O     1 NAD    -0.6243 ****
 35 C15    23.959000    4.010000    8.586000 C     1 NAD     0.0371 ****
 36 N6     22.515000    3.608000    8.220000 N     1 NAD     0.0120 ****
 37 C16    21.454000    4.308000    8.682000 C     1 NAD    -0.1093 ****
 38 C17    20.250000    3.880000    8.295000 C     1 NAD    -0.1060 ****
 39 C18    19.098000    4.759000    8.879000 C     1 NAD     0.6516 ****
 40 O14    17.963000    4.336000    8.920000 O     1 NAD    -0.6177 ****
 41 N7     19.372000    5.991000    9.325000 N     1 NAD    -0.8650 ****
 42 C19    19.969000    2.771000    7.461000 C     1 NAD     0.0036 ****
 43 C20    21.157000    2.089000    7.009000 C     1 NAD    -0.2578 ****
 44 C21    22.397000    2.518000    7.397000 C     1 NAD    -0.0667 ****
 45 H47    30.856532    4.116799    5.384046 H     1 NAD     0.0822 ****
 46 H48    29.673706    5.130921    4.895990 H     1 NAD     0.0822 ****
 47 H49    30.855871    5.468591    2.865369 H     1 NAD     0.1109 ****
 48 H50    32.516835    3.411568    3.563327 H     1 NAD     0.0750 ****
 49 H51    31.708893    3.821194    1.423854 H     1 NAD     0.3993 ****
 50 H52    34.150616    4.602069    4.494679 H     1 NAD     0.0134 ****
 51 H53    35.611650    5.635868    3.492676 H     1 NAD     0.3907 ****
 52 H54    33.332579    7.038448    3.116993 H     1 NAD     0.1205 ****
 53 H55    34.450725    5.779948    6.417998 H     1 NAD     0.1829 ****
 54 H56    36.290074   11.485007    7.769572 H     1 NAD     0.3747 ****
 55 H57    34.193710   11.591285    3.857392 H     1 NAD     0.0734 ****
 56 H58    25.655819    4.756630    5.323916 H     1 NAD     0.1017 ****
 57 H59    27.221183    4.570749    5.749124 H     1 NAD     0.1017 ****
 58 H60    26.398725    5.472795    7.600379 H     1 NAD     0.0746 ****
 59 H61    27.065952    3.052042    8.244171 H     1 NAD     0.0621 ****
 60 H62    27.094356    3.819338   10.314356 H     1 NAD     0.4437 ****
 61 H63    24.912320    2.065666    8.223994 H     1 NAD     0.1609 ****
 62 H64    24.003342    1.960179   10.310503 H     1 NAD     0.3937 ****
 63 H65    23.884648    4.577663    9.405896 H     1 NAD     0.1636 ****
 64 H66    21.532663    5.105110    9.280688 H     1 NAD     0.1165 ****
 65 H67    18.641205    6.562183    9.698561 H     1 NAD     0.3747 ****
 66 H68    19.456617    3.107989    6.671125 H     1 NAD     0.0354 ****
 67 H69    19.397954    2.136826    7.982277 H     1 NAD     0.0354 ****
 68 H70    21.078901    1.294798    6.406386 H     1 NAD     0.1307 ****
 69 H71    23.214340    2.036706    7.080282 H     1 NAD     0.1628 ****
 70 H72    36.275607    9.847696    8.331622 H     1 NAD     0.3747 ****
 71 H73    20.309363    6.337521    9.291662 H     1 NAD     0.3747 ****
@<TRIPOS>BOND
    1     1    23 1
    2     1     3 1
    3     1     2 1
    4     1     4 1
    5     4     5 1
    6     5     6 1
    7     5    45 1
    8     5    46 1
    9     6     7 1
   10     6     8 1
   11     6    47 1
   12     7    12 1
   13     8    10 1
   14     8     9 1
   15     8    48 1
   16     9    49 1
   17    10    11 1
   18    10    50 1
   19    10    12 1
   20    11    51 1
   21    12    13 1
   22    12    52 1
   23    13    22 1
   24    13    14 1
   25    14    15 1
   26    14    53 1
   27    15    16 1
   28    16    22 1
   29    16    17 1
   30    17    19 1
   31    17    18 1
   32    18    54 1
   33    18    70 1
   34    19    20 1
   35    20    21 1
   36    20    55 1
   37    21    22 1
   38    23    24 1
   39    24    27 1
   40    24    26 1
   41    24    25 1
   42    27    28 1
   43    28    29 1
   44    28    56 1
   45    28    57 1
   46    29    30 1
   47    29    31 1
   48    29    58 1
   49    30    35 1
   50    31    33 1
   51    31    32 1
   52    31    59 1
   53    32    60 1
   54    33    34 1
   55    33    61 1
   56    33    35 1
   57    34    62 1
   58    35    36 1
   59    35    63 1
   60    36    44 1
   61    36    37 1
   62    37    38 1
   63    37    64 1
   64    38    39 1
   65    38    42 1
   66    39    41 1
   67    39    40 1
   68    41    65 1
   69    41    71 1
   70    42    43 1
   71    42    66 1
   72    42    67 1
   73    43    44 1
   74    43    68 1
   75    44    69 1
@<TRIPOS>SUBSTRUCTURE
      1  NAD              1 ****               0 ****  **** 
