@<TRIPOS>MOLECULE
S7P
   31    30     1     0     0
SMALL
bcc


@<TRIPOS>ATOM
      1 H         169.7170   21.7880 -283.3580 h1        1 S7P      0.018700
      2 C         168.7150   22.2090 -283.2490 c3        1 S7P      0.133100
      3 C1        167.9770   21.5730 -284.4550 c3        1 S7P      0.094100
      4 C2        166.4720   21.8480 -284.6310 c3        1 S7P      0.191400
      5 O         166.0330   23.1030 -284.2290 os        1 S7P     -0.592200
      6 P         166.2190   24.4430 -285.3060 p5        1 S7P      1.324900
      7 O1        165.8590   25.5870 -284.4000 o         1 S7P     -0.901500
      8 C3        168.2900   21.8210 -281.8120 c3        1 S7P      0.114100
      9 C4        167.1840   22.6420 -281.1250 c3        1 S7P      0.044100
     10 O2        168.8120   23.5940 -283.2720 oh        1 S7P     -0.629800
     11 O3        167.7170   24.3510 -285.6000 o         1 S7P     -0.925500
     12 O4        165.3280   24.1400 -286.4560 o         1 S7P     -0.902500
     13 O5        167.9400   20.4510 -281.7130 oh        1 S7P     -0.632800
     14 H1        169.1700   21.9510 -281.1960 h1        1 S7P      0.046700
     15 H2        168.4760   23.9710 -284.1040 ho        1 S7P      0.485000
     16 O6        168.6950   21.8820 -285.6200 oh        1 S7P     -0.670800
     17 H3        168.0790   20.4980 -284.3290 h1        1 S7P      0.023700
     18 H4        166.2270   21.6710 -285.6730 h1        1 S7P      0.041700
     19 H5        165.9190   21.1140 -284.0420 h1        1 S7P     -0.041300
     20 H6        167.0230   20.3980 -281.9520 ho        1 S7P      0.419000
     21 H7        168.4440   22.7890 -285.8550 ho        1 S7P      0.481000
     22 H8        167.1480   22.2470 -280.1130 h1        1 S7P      0.044700
     23 C5        167.5230   24.1270 -280.9240 c         1 S7P      0.564100
     24 O7        165.9180   22.3900 -281.6570 oh        1 S7P     -0.648800
     25 H9        165.8500   22.7830 -282.5370 ho        1 S7P      0.475000
     26 C6        166.5440   25.2090 -281.3950 c3        1 S7P      0.081400
     27 O8        168.4720   24.3970 -280.2440 o         1 S7P     -0.590100
     28 O9        167.1470   26.2260 -282.1120 oh        1 S7P     -0.634800
     29 H10       165.7330   24.7840 -281.9610 h1        1 S7P      0.090700
     30 H11       166.1270   25.6100 -280.4670 h1        1 S7P      0.005700
     31 H12       166.8500   26.1020 -283.0300 ho        1 S7P      0.488000
@<TRIPOS>BOND
     1    1    2 1   
     2    2    3 1   
     3    2    8 1   
     4    2   10 1   
     5    3    4 1   
     6    3   16 1   
     7    3   17 1   
     8    4    5 1   
     9    4   18 1   
    10    4   19 1   
    11    5    6 1   
    12    6    7 1   
    13    6   11 1   
    14    6   12 1   
    15    8    9 1   
    16    8   13 1   
    17    8   14 1   
    18    9   22 1   
    19    9   23 1   
    20    9   24 1   
    21   10   15 1   
    22   13   20 1   
    23   16   21 1   
    24   23   26 1   
    25   23   27 2   
    26   24   25 1   
    27   26   28 1   
    28   26   29 1   
    29   26   30 1   
    30   28   31 1   
@<TRIPOS>SUBSTRUCTURE
     1             1 TEMP              0 ****  ****    0 ROOT
