@<TRIPOS>MOLECULE
MOL
   31    30     1     0     0
SMALL
bcc


@<TRIPOS>ATOM
      1 O1          4.9920    0.6060    1.2450 O.co2     1 MOL     -0.912500
      2 P1          4.6100   -0.1320   -0.1330 P.3       1 MOL      1.325900
      3 O2          4.8320    0.7940   -1.2660 O.co2     1 MOL     -0.912500
      4 O3          5.5350   -1.4370   -0.3180 O.co2     1 MOL     -0.912500
      5 O4          3.0630   -0.5730   -0.0960 O.3       1 MOL     -0.558200
      6 C1          1.9870    0.3670   -0.0460 C.3       1 MOL      0.205400
      7 C2          0.6540   -0.3840   -0.0200 C.3       1 MOL      0.096100
      8 O5          0.5550   -1.1370    1.1910 O.3       1 MOL     -0.721800
      9 C3         -0.4980    0.6200   -0.0930 C.3       1 MOL      0.088100
     10 O6         -0.3990    1.3730   -1.3030 O.3       1 MOL     -0.648800
     11 C4         -1.8310   -0.1320   -0.0670 C.3       1 MOL      0.149100
     12 O7         -1.9310   -0.8850    1.1430 O.3       1 MOL     -0.654800
     13 C5         -2.9830    0.8720   -0.1400 C.3       1 MOL      0.056100
     14 O8         -2.8490    1.8290    0.9120 O.3       1 MOL     -0.590800
     15 C6         -4.2940    0.1440    0.0090 C.2       1 MOL      0.519100
     16 O9         -4.9070    0.2110    1.0470 O.2       1 MOL     -0.557100
     17 C7         -4.8400   -0.6680   -1.1390 C.3       1 MOL      0.019400
     18 O10        -6.0840   -1.2580   -0.7550 O.3       1 MOL     -0.613800
     19 H1          2.0790    0.9760    0.8540 H         1 MOL     -0.006800
     20 H2          2.0260    1.0100   -0.9260 H         1 MOL     -0.006800
     21 H3          0.6020   -1.0600   -0.8740 H         1 MOL      0.012700
     22 H4          0.5940   -0.5980    1.9930 H         1 MOL      0.527000
     23 H5         -0.4460    1.2960    0.7600 H         1 MOL      0.057700
     24 H6         -0.4380    0.8340   -2.1060 H         1 MOL      0.420000
     25 H7         -1.8840   -0.8080   -0.9200 H         1 MOL      0.043700
     26 H8         -1.8910   -0.3450    1.9460 H         1 MOL      0.475000
     27 H9         -2.9590    1.3840   -1.1020 H         1 MOL      0.111700
     28 H10        -2.8620    1.4440    1.7990 H         1 MOL      0.427000
     29 H11        -4.9950   -0.0200   -2.0000 H         1 MOL      0.075200
     30 H12        -4.1290   -1.4530   -1.3970 H         1 MOL      0.075200
     31 H13        -6.4930   -1.7960   -1.4470 H         1 MOL      0.413000
@<TRIPOS>BOND
     1    1    2 1   
     2    2    3 1   
     3    2    4 1   
     4    2    5 1   
     5    5    6 1   
     6    6    7 1   
     7    6   19 1   
     8    6   20 1   
     9    7    8 1   
    10    7    9 1   
    11    7   21 1   
    12    8   22 1   
    13    9   10 1   
    14    9   11 1   
    15    9   23 1   
    16   10   24 1   
    17   11   12 1   
    18   11   13 1   
    19   11   25 1   
    20   12   26 1   
    21   13   14 1   
    22   13   15 1   
    23   13   27 1   
    24   14   28 1   
    25   15   16 2   
    26   15   17 1   
    27   17   18 1   
    28   17   29 1   
    29   17   30 1   
    30   18   31 1   
@<TRIPOS>SUBSTRUCTURE
     1 MOL         1 TEMP              0 ****  ****    0 ROOT
