@<TRIPOS>MOLECULE
MOL
    6     5     1     0     0
SMALL
bcc


@<TRIPOS>ATOM
      1 P1         -0.0940    0.0430    0.0330 P.3       1 MOL      1.319900
      2 O1         -1.4680   -0.4320   -0.2790 O.co2     1 MOL     -0.956500
      3 O2          0.5610   -0.7670    1.1420 O.co2     1 MOL     -0.956500
      4 O3          0.0590    1.4610    0.2630 O.co2     1 MOL     -0.956500
      5 O4          0.8120   -0.3380   -1.0780 O.3       1 MOL     -0.815400
      6 H1          1.6900   -0.0350   -0.8780 H         1 MOL      0.364000
@<TRIPOS>BOND
     1    1    2 1   
     2    1    3 1   
     3    1    4 1   
     4    1    5 1   
     5    5    6 1   
@<TRIPOS>SUBSTRUCTURE
     1 MOL         1 TEMP              0 ****  ****    0 ROOT
