@<TRIPOS>MOLECULE
Pi
    6     5     1     0     1 
SMALL
USER_CHARGES
@<TRIPOS>ATOM
  1 P1     -0.094000    0.043000    0.033000 P     1 Pi      1.6751 ****
  2 O2      0.561000   -0.767000    1.142000 O     1 Pi     -1.0819 ****
  3 O3      0.059000    1.461000    0.263000 O     1 Pi     -1.0819 ****
  4 O4      0.812000   -0.338000   -1.078000 O     1 Pi     -0.8048 ****
  5 H1      1.690000   -0.035000   -0.878000 H     1 Pi      0.3754 ****
  6 O1     -1.468000   -0.432000   -0.279000 O     1 Pi     -1.0819 ****
@<TRIPOS>BOND
    1     1     2 1
    2     1     3 1
    3     1     4 1
    4     1     6 1
    5     4     5 1
@<TRIPOS>SUBSTRUCTURE
      1   Pi              1 ****               0 ****  **** 
