@<TRIPOS>MOLECULE
 
   12    11     1     0     0
SMALL
bcc


@<TRIPOS>ATOM
      1 C1          0.3120   -0.4910    2.3660 C.2       1          0.891800
      2 O1          1.2030   -1.3490    2.3500 O.co2     1         -0.908300
      3 O2         -0.1030    0.1140    3.3770 O.co2     1         -0.908300
      4 C2         -0.4050   -0.1720    1.0160 C.2       1          0.260900
      5 C3         -1.7090    0.1310    1.0590 C.2       1         -0.546000
      6 O3          0.3360   -0.2930   -0.0700 O.3       1         -0.472500
      7 P1         -0.0450    0.1640   -1.7400 P.3       1          1.353900
      8 O4         -0.1180    1.6700   -1.7010 O.co2     1         -0.934167
      9 O5          1.1570   -0.4030   -2.4520 O.co2     1         -0.934167
     10 O6         -1.3520   -0.5300   -2.0400 O.co2     1         -0.934167
     11 H1         -2.2680    0.2850    0.1560 H         1          0.065500
     12 H2         -2.1880    0.2360    2.0170 H         1          0.065500
@<TRIPOS>BOND
     1    1    2 1   
     2    1    3 1   
     3    1    4 1   
     4    4    5 2   
     5    4    6 1   
     6    5   11 1   
     7    5   12 1   
     8    6    7 1   
     9    7    8 1   
    10    7    9 1   
    11    7   10 1   
@<TRIPOS>SUBSTRUCTURE
     1             1 TEMP              0 ****  ****    0 ROOT
