@<TRIPOS>MOLECULE
2PG
   16    15     1     0     0
SMALL
bcc


@<TRIPOS>ATOM
      1 C1          1.5260    1.5560   -0.1680 C.3       1 2PG      0.134400
      2 O1          0.5460    2.5880   -0.0300 O.3       1 2PG     -0.684800
      3 C2          0.8760    0.1970    0.1000 C.3       1 2PG      0.047100
      4 O2         -0.1790   -0.0180   -0.8380 O.3       1 2PG     -0.583200
      5 P1         -1.5310   -0.1960    0.0160 P.3       1 2PG      1.440800
      6 O3         -1.3810   -1.4490    1.0000 O.3       1 2PG     -0.818400
      7 C3          1.9090   -0.8900   -0.0440 C.2       1 2PG      0.910600
      8 O4          2.9970   -0.8910    0.7400 O.co2     1 2PG     -0.866800
      9 O5          1.7560   -1.7610   -0.8670 O.co2     1 2PG     -0.866800
     10 O6         -1.7770    1.0280    0.8090 O.co2     1 2PG     -0.862000
     11 O7         -2.7690   -0.4450   -0.9830 O.co2     1 2PG     -0.862000
     12 H1          0.4710    0.1810    1.1120 H         1 2PG      0.031700
     13 H2          1.9310    1.5720   -1.1790 H         1 2PG      0.029200
     14 H3          2.3320    1.7210    0.5480 H         1 2PG      0.029200
     15 H4          0.9970    3.4250   -0.2070 H         1 2PG      0.449000
     16 H5         -2.1780   -1.5530    1.5020 H         1 2PG      0.472000
@<TRIPOS>BOND
     1    1    2 1   
     2    1    3 1   
     3    1   13 1   
     4    1   14 1   
     5    2   15 1   
     6    3    4 1   
     7    3    7 1   
     8    3   12 1   
     9    4    5 1   
    10    5    6 1   
    11    5   10 1   
    12    5   11 1   
    13    6   16 1   
    14    7    8 1   
    15    7    9 1   
@<TRIPOS>SUBSTRUCTURE
     1 2PG         1 TEMP              0 ****  ****    0 ROOT
