@<TRIPOS>MOLECULE
PEP.xyz
 12 11 0 0 0
SMALL
GASTEIGER

@<TRIPOS>ATOM
      1 C          29.7460   70.1730   12.5240 C.3     1  LIG1        0.2206
      2 C          29.2060   70.4510   11.1440 C.2     1  LIG1        0.3913
      3 O          28.0760   70.9870   11.0390 O.co2   1  LIG1       -0.2430
      4 O          31.1470   70.2090   12.5440 O.3     1  LIG1       -0.2618
      5 P          31.8840   69.4060   13.7090 P.3     1  LIG1        0.5330
      6 O          33.2970   69.8230   13.6570 O.3     1  LIG1       -0.1145
      7 O          31.1700   69.8960   14.8920 O.3     1  LIG1       -0.1145
      8 O          31.6660   67.9750   13.3100 O.2     1  LIG1       -0.2224
      9 O          29.8860   70.0780   10.1620 O.co2   1  LIG1       -0.2430
     10 C          29.2511   69.8759   13.8541 C.3     1  LIG1       -0.0058
     11 H          29.6345   68.9089   14.1765 H       1  LIG1        0.0301
     12 H          29.5845   70.6476   14.5463 H       1  LIG1        0.0301
@<TRIPOS>BOND
     1     9     2   ar
     2     3     2   ar
     3     2     1    1
     4     1     4    1
     5     1    10    1
     6     4     5    1
     7     8     5    2
     8     6     5    1
     9     5     7    1
    10    10    11    1
    11    10    12    1
