@<TRIPOS>MOLECULE
F6P
   27    27     1     0     1 
SMALL
USER_CHARGES
@<TRIPOS>ATOM
  1 O1     -3.823000   -1.698000    0.299000 O     1 F6P    -0.7507 ****
  2 H1     -3.070000   -2.068000    0.749000 H     1 F6P     0.4522 ****
  3 C1     -3.503000   -0.344000    0.116000 C     1 F6P     0.5064 ****
  4 H2     -3.980000   -0.001000   -0.794000 H     1 F6P    -0.0713 ****
  5 H3     -3.876000    0.248000    0.950000 H     1 F6P    -0.0713 ****
  6 C2     -2.002000   -0.122000    0.015000 C     1 F6P     0.2011 ****
  7 O2     -1.450000   -0.847000    1.068000 O     1 F6P    -0.7080 ****
  8 H4     -0.465000   -0.896000    1.067000 H     1 F6P     0.4791 ****
  9 O5     -1.541000   -0.541000   -1.231000 O     1 F6P    -0.5308 ****
 10 C3     -1.566000    1.347000    0.057000 C     1 F6P     0.3174 ****
 11 O3     -1.720000    1.945000    1.315000 O     1 F6P    -0.7324 ****
 12 H6     -1.146000    1.479000    1.912000 H     1 F6P     0.4339 ****
 13 H5     -2.163000    1.929000   -0.639000 H     1 F6P     0.0077 ****
 14 C4     -0.132000    1.179000   -0.415000 C     1 F6P     0.3392 ****
 15 O4      0.533000    2.318000   -0.854000 O     1 F6P    -0.7813 ****
 16 H8      1.424000    2.174000   -0.499000 H     1 F6P     0.4609 ****
 17 H7      0.401000    0.795000    0.429000 H     1 F6P     0.0214 ****
 18 C5     -0.268000    0.080000   -1.485000 C     1 F6P     0.1206 ****
 19 H9     -0.337000    0.566000   -2.454000 H     1 F6P     0.0218 ****
 20 C6      0.818000   -1.016000   -1.499000 C     1 F6P     0.2745 ****
 21 H10     0.491000   -1.806000   -0.838000 H     1 F6P    -0.0126 ****
 22 H11     0.855000   -1.432000   -2.510000 H     1 F6P    -0.0126 ****
 23 O6      2.076000   -0.564000   -1.174000 O     1 F6P    -0.6204 ****
 24 P1      2.515000   -0.359000    0.475000 P     1 F6P     1.3670 ****
 25 O8      3.775000   -1.134000    0.642000 O     1 F6P    -0.9039 ****
 26 O9      2.618000    1.150000    0.576000 O     1 F6P    -0.9039 ****
 27 O7      1.289000   -0.922000    1.204000 O     1 F6P    -0.9039 ****
@<TRIPOS>BOND
    1     1     2 1
    2     1     3 1
    3     3     4 1
    4     3     5 1
    5     3     6 1
    6     6     7 1
    7     6     9 1
    8     6    10 1
    9     7     8 1
   10     9    18 1
   11    10    11 1
   12    10    13 1
   13    10    14 1
   14    11    12 1
   15    14    15 1
   16    14    17 1
   17    14    18 1
   18    15    16 1
   19    18    19 1
   20    18    20 1
   21    20    21 1
   22    20    22 1
   23    20    23 1
   24    23    24 1
   25    24    25 1
   26    24    26 1
   27    24    27 1
@<TRIPOS>SUBSTRUCTURE
      1  F6P              1 ****               0 ****  **** 
