@<TRIPOS>MOLECULE
MOL
   31    30     1     0     0
SMALL
bcc


@<TRIPOS>ATOM
      1 O1          3.5570   -1.5570    0.7050 O.3       1 MOL     -0.795400
      2 P1          4.3360   -0.2840    0.0860 P.3       1 MOL      1.437800
      3 O2          4.5460    0.7530    1.1260 O.co2     1 MOL     -0.852000
      4 O3          5.4550   -0.7680   -0.7480 O.co2     1 MOL     -0.852000
      5 O4          3.1850    0.2810   -0.9560 O.3       1 MOL     -0.617200
      6 C1          2.0620    0.9790   -0.5010 C.3       1 MOL      0.118400
      7 C2          0.8290    0.0680   -0.3930 C.3       1 MOL      0.346800
      8 O5          0.8950   -0.7780    0.6630 O.2       1 MOL     -0.905500
      9 C3         -0.4600    0.9310   -0.3310 C.3       1 MOL      0.050100
     10 O6         -0.7150    1.6170   -1.5520 O.3       1 MOL     -0.668800
     11 C4         -1.6770    0.0520   -0.0240 C.3       1 MOL      0.150100
     12 O7         -1.5220   -0.6520    1.1630 O.3       1 MOL     -0.691800
     13 C5         -2.9690    0.8660    0.1390 C.3       1 MOL      0.044100
     14 O8         -2.9130    1.6540    1.2820 O.3       1 MOL     -0.603800
     15 C6         -4.1920   -0.0410    0.1780 C.2       1 MOL      0.526100
     16 O9         -5.0550    0.0440    1.0030 O.2       1 MOL     -0.575100
     17 C7         -4.3550   -1.0950   -0.9130 C.3       1 MOL      0.016400
     18 O10        -5.6620   -1.5840   -0.9310 O.3       1 MOL     -0.619800
     19 H1          2.2520    1.4220    0.4700 H         1 MOL      0.018200
     20 H2          1.8820    1.7900   -1.2090 H         1 MOL      0.018200
     21 H3          0.7610   -0.4680   -1.3660 H         1 MOL     -0.070300
     22 H4          2.6140   -1.3620    0.8120 H         1 MOL      0.434000
     23 H5         -0.3590    1.6780    0.4500 H         1 MOL      0.033700
     24 H6         -0.1120    1.2770   -2.1990 H         1 MOL      0.447000
     25 H7         -1.7880   -0.6190   -0.8780 H         1 MOL      0.023700
     26 H8         -0.5300   -0.8680    1.1630 H         1 MOL      0.492000
     27 H9         -3.0930    1.5220   -0.7180 H         1 MOL      0.108700
     28 H10        -2.4690    1.1190    1.9330 H         1 MOL      0.426000
     29 H11        -4.1120   -0.6760   -1.8840 H         1 MOL      0.077200
     30 H12        -3.6440   -1.8920   -0.7120 H         1 MOL      0.077200
     31 H13        -6.0500   -1.3150   -0.1040 H         1 MOL      0.410000
@<TRIPOS>BOND
     1    1    2 1   
     2    1   22 1   
     3    2    3 1   
     4    2    4 1   
     5    2    5 1   
     6    5    6 1   
     7    6    7 1   
     8    6   19 1   
     9    6   20 1   
    10    7    8 1   
    11    7    9 1   
    12    7   21 1   
    13    9   10 1   
    14    9   11 1   
    15    9   23 1   
    16   10   24 1   
    17   11   12 1   
    18   11   13 1   
    19   11   25 1   
    20   12   26 1   
    21   13   14 1   
    22   13   15 1   
    23   13   27 1   
    24   14   28 1   
    25   15   16 2   
    26   15   17 1   
    27   17   18 1   
    28   17   29 1   
    29   17   30 1   
    30   18   31 1   
@<TRIPOS>SUBSTRUCTURE
     1 MOL         1 TEMP              0 ****  ****    0 ROOT
