@<TRIPOS>MOLECULE
2PG
   15    14     1     0     0
SMALL
bcc


@<TRIPOS>ATOM
      1 C1          1.9060   -0.8620   -0.0350 C.2       1 2PG      0.900600
      2 C2          0.8490    0.2040    0.1010 C.3       1 2PG      0.124100
      3 C3          1.4630    1.5710   -0.2040 C.3       1 2PG      0.128400
      4 P1         -1.5490   -0.2480    0.0570 P.3       1 2PG      1.336900
      5 O1          1.7640   -1.7530   -0.8370 O.co2     1 2PG     -0.913800
      6 O2          3.0040   -0.8200    0.7340 O.co2     1 2PG     -0.913800
      7 O3          0.4610    2.5830   -0.0750 O.3       1 2PG     -0.736800
      8 O4         -0.2120   -0.0570   -0.8180 O.3       1 2PG     -0.572200
      9 O5         -1.8140    0.9870    0.8280 O.co2     1 2PG     -0.945833
     10 O6         -2.7930   -0.5480   -0.9200 O.co2     1 2PG     -0.945833
     11 O7         -1.3550   -1.4830    1.0710 O.co2     1 2PG     -0.945833
     12 H1          0.4580    0.1990    1.1180 H         1 2PG      0.019700
     13 H2          1.8540    1.5750   -1.2220 H         1 2PG     -0.011800
     14 H3          2.2730    1.7710    0.4970 H         1 2PG     -0.011800
     15 H4          0.8890    3.4260   -0.2750 H         1 2PG      0.487000
@<TRIPOS>BOND
     1    1    2 1   
     2    1    5 1   
     3    1    6 1   
     4    2    3 1   
     5    2    8 1   
     6    2   12 1   
     7    3    7 1   
     8    3   13 1   
     9    3   14 1   
    10    4    8 1   
    11    4    9 1   
    12    4   10 1   
    13    4   11 1   
    14    7   15 1   
@<TRIPOS>SUBSTRUCTURE
     1 2PG         1 TEMP              0 ****  ****    0 ROOT
