@<TRIPOS>MOLECULE
MOL
    7     6     1     0     0
SMALL
bcc


@<TRIPOS>ATOM
      1 P1          0.0040   -0.1170    0.1200 P.3       1 MOL      1.428800
      2 O1          0.0530   -1.5810    0.1790 O.co2     1 MOL     -0.849500
      3 O2         -0.0350    0.7790    1.3020 O.co2     1 MOL     -0.849500
      4 O3          1.2620    0.4070   -0.7930 O.3       1 MOL     -0.783400
      5 O4         -1.2750    0.3250   -0.8100 O.3       1 MOL     -0.783400
      6 H1          1.5520    1.2220   -0.4070 H         1 MOL      0.418000
      7 H2         -1.6400    1.1010   -0.4090 H         1 MOL      0.418000
@<TRIPOS>BOND
     1    1    2 1   
     2    1    3 1   
     3    1    4 1   
     4    1    5 1   
     5    4    6 1   
     6    5    7 1   
@<TRIPOS>SUBSTRUCTURE
     1 MOL         1 TEMP              0 ****  ****    0 ROOT
