@<TRIPOS>MOLECULE
MOL
    6     5     1     0     0
SMALL
bcc


@<TRIPOS>ATOM
      1 P1         -0.1480   -0.0000    0.0670 P.3       1 MOL      1.319900
      2 O1         -0.8770    1.2740   -0.2900 O.co2     1 MOL     -0.956500
      3 O2         -0.8740   -1.2750   -0.2910 O.co2     1 MOL     -0.956500
      4 O3          0.5300   -0.0000    1.4290 O.co2     1 MOL     -0.956500
      5 O4          1.2580    0.0020   -0.9400 O.3       1 MOL     -0.815400
      6 H1          1.9240    0.0000   -0.2680 H         1 MOL      0.364000
@<TRIPOS>BOND
     1    1    2 1   
     2    1    3 1   
     3    1    4 1   
     4    1    5 1   
     5    5    6 1   
@<TRIPOS>SUBSTRUCTURE
     1 MOL         1 TEMP              0 ****  ****    0 ROOT
