@<TRIPOS>MOLECULE
Pi
    6     5     1     0     1 
SMALL
USER_CHARGES
@<TRIPOS>ATOM
  1 P1     -0.148000    0.000000    0.067000 P     1 Pi     -0.1448 ****
  2 O2     -0.874000   -1.275000   -0.291000 O     1 Pi     -0.5547 ****
  3 O3      0.530000    0.000000    1.429000 O     1 Pi     -0.5547 ****
  4 O4      1.258000    0.002000   -0.940000 O     1 Pi     -0.5220 ****
  5 H1      1.924000    0.000000   -0.268000 H     1 Pi      0.3309 ****
  6 O1     -0.877000    1.274000   -0.290000 O     1 Pi     -0.5547 ****
@<TRIPOS>BOND
    1     1     2 1
    2     1     3 1
    3     1     4 1
    4     1     6 1
    5     4     5 1
@<TRIPOS>SUBSTRUCTURE
      1   Pi              1 ****               0 ****  **** 
