24794350
  -OEChem-07191517563D

 15 14  0     1  0  0  0  0  0999 V2000
   -2.1784    0.1012   -0.0449 P   0  0  0  0  0  0  0  0  0  0  0  0
   -0.6295    0.0570    0.5260 O   0  0  0  0  0  0  0  0  0  0  0  0
    2.5796   -1.4554   -0.1080 O   0  0  0  0  0  0  0  0  0  0  0  0
   -2.9471    0.8136    1.0639 O   0  5  0  0  0  0  0  0  0  0  0  0
   -2.5667   -1.3633   -0.2260 O   0  5  0  0  0  0  0  0  0  0  0  0
   -2.0897    0.8940   -1.3455 O   0  0  0  0  0  0  0  0  0  0  0  0
    3.4077    1.0940   -0.2971 O   0  0  0  0  0  0  0  0  0  0  0  0
    0.3748   -0.5516   -0.2730 C   0  0  0  0  0  0  0  0  0  0  0  0
    1.7146   -0.4798    0.4425 C   0  0  2  0  0  0  0  0  0  0  0  0
    2.3347    0.8903    0.2621 C   0  0  0  0  0  0  0  0  0  0  0  0
    0.0977   -1.5965   -0.4512 H   0  0  0  0  0  0  0  0  0  0  0  0
    0.4204   -0.0510   -1.2467 H   0  0  0  0  0  0  0  0  0  0  0  0
    1.6022   -0.6654    1.5160 H   0  0  0  0  0  0  0  0  0  0  0  0
    1.7580    1.7292    0.6890 H   0  0  0  0  0  0  0  0  0  0  0  0
    3.3957   -1.4558    0.4209 H   0  0  0  0  0  0  0  0  0  0  0  0
  1  2  1  0  0  0  0
  1  4  1  0  0  0  0
  1  5  1  0  0  0  0
  1  6  2  0  0  0  0
  2  8  1  0  0  0  0
  3  9  1  0  0  0  0
  3 15  1  0  0  0  0
  7 10  2  0  0  0  0
  8  9  1  0  0  0  0
  8 11  1  0  0  0  0
  8 12  1  0  0  0  0
  9 10  1  0  0  0  0
  9 13  1  0  0  0  0
 10 14  1  0  0  0  0
M  CHG  2   4  -1   5  -1
M  END
> <PUBCHEM_COMPOUND_CID>
24794350

> <PUBCHEM_CONFORMER_RMSD>
0.6

> <PUBCHEM_CONFORMER_DIVERSEORDER>
1
15
10
5
16
9
17
8
14
19
11
13
12
6
2
18
4
3
7

> <PUBCHEM_MMFF94_PARTIAL_CHARGES>
12
1 1.37
10 0.45
14 0.06
15 0.4
2 -0.55
3 -0.68
4 -1.03
5 -1.03
6 -1.03
7 -0.57
8 0.28
9 0.34

> <PUBCHEM_EFFECTIVE_ROTOR_COUNT>
4

> <PUBCHEM_PHARMACOPHORE_FEATURES>
7
1 3 acceptor
1 3 donor
1 4 acceptor
1 5 acceptor
1 6 acceptor
1 7 acceptor
4 1 4 5 6 anion

> <PUBCHEM_HEAVY_ATOM_COUNT>
10

> <PUBCHEM_ATOM_DEF_STEREO_COUNT>
1

> <PUBCHEM_ATOM_UDEF_STEREO_COUNT>
0

> <PUBCHEM_BOND_DEF_STEREO_COUNT>
0

> <PUBCHEM_BOND_UDEF_STEREO_COUNT>
0

> <PUBCHEM_ISOTOPIC_ATOM_COUNT>
0

> <PUBCHEM_COMPONENT_COUNT>
1

> <PUBCHEM_CACTVS_TAUTO_COUNT>
4

> <PUBCHEM_CONFORMER_ID>
017A54EE00000001

> <PUBCHEM_MMFF94_ENERGY>
14.1053

> <PUBCHEM_FEATURE_SELFOVERLAP>
35.573

> <PUBCHEM_SHAPE_FINGERPRINT>
10857977 72 16443355264525881593
12897270 3 18272646883003180984
12932741 1 17894909577312799062
12932764 1 17968096374055914650
14325111 11 18341614827913314426
14390081 3 17821721719644351997
15310529 11 18060137656479651375
15775835 57 18411142449890522188
170605 34 18188207706174137776
19973954 147 18261669281628661868
20653085 51 18116988897589860677
20711983 171 17775571914076395417
23552423 10 18340485573526614082
3248919 1 18130496457655148251
8030462 33 17632285774715448329

> <PUBCHEM_SHAPE_MULTIPOLES>
174.43
5.47
1.28
0.89
0.68
0.22
0.08
-0.88
-0.02
0.34
0.09
-0.54
-0.21
-0.12

> <PUBCHEM_SHAPE_SELFOVERLAP>
316.468

> <PUBCHEM_SHAPE_VOLUME>
111.4

> <PUBCHEM_COORDINATE_TYPE>
2
5
10

$$$$
