@<TRIPOS>MOLECULE
G3P
   15    14     1     0     0
SMALL
bcc


@<TRIPOS>ATOM
      1 P1         -1.8250    0.4800   -0.0490 P.3       1 G3P      1.321900
      2 O2         -0.6970   -0.5620    0.7940 O.3       1 G3P     -0.564200
      3 O3          2.7420   -1.3360    0.0130 O.3       1 G3P     -0.634800
      4 O4         -2.7330    0.8930    1.0680 O.co2     1 G3P     -0.921833
      5 O5         -2.3920   -0.4230   -1.1080 O.co2     1 G3P     -0.921833
      6 O6         -0.8920    1.5560   -0.5780 O.co2     1 G3P     -0.921833
      7 O7          2.8710    1.2300   -0.4180 O.2       1 G3P     -0.660100
      8 C8          0.2930   -1.1510    0.0550 C.3       1 G3P      0.210400
      9 C9          1.6510   -0.5760    0.4840 C.3       1 G3P     -0.048900
     10 C10         1.8210    0.8660    0.0600 C.2       1 G3P      0.502900
     11 H11         0.3400   -2.2280    0.2450 H         1 G3P      0.004200
     12 H12         0.1550   -1.0250   -1.0140 H         1 G3P      0.004200
     13 H13         1.6510   -0.5750    1.5750 H         1 G3P      0.076700
     14 H14         0.9590    1.5140    0.1860 H         1 G3P      0.167200
     15 H15         3.3300   -0.7030   -0.3860 H         1 G3P      0.385000
@<TRIPOS>BOND
     1    1    2 1   
     2    1    4 1   
     3    1    5 1   
     4    1    6 1   
     5    2    8 1   
     6    3    9 1   
     7    3   15 1   
     8    7   10 2   
     9    8    9 1   
    10    8   11 1   
    11    8   12 1   
    12    9   10 1   
    13    9   13 1   
    14   10   14 1   
@<TRIPOS>SUBSTRUCTURE
     1 G3P         1 TEMP              0 ****  ****    0 ROOT
