@<TRIPOS>MOLECULE
G3P
   15    14     1     0     1 
SMALL
USER_CHARGES
@<TRIPOS>ATOM
  1 P1     -1.773000   -0.152000    0.063000 P     1 G3P     1.3190 ****
  2 O3     -2.735000   -0.294000   -1.076000 O     1 G3P    -0.9149 ****
  3 O4     -2.214000    0.663000    1.246000 O     1 G3P    -0.9149 ****
  4 O5     -0.980000   -1.397000    0.420000 O     1 G3P    -0.9149 ****
  5 O1     -0.529000    0.846000   -0.663000 O     1 G3P    -0.6658 ****
  6 C1      0.533000    1.203000    0.123000 C     1 G3P     0.3462 ****
  7 H1      0.714000    2.281000    0.076000 H     1 G3P    -0.0412 ****
  8 H2      0.389000    0.952000    1.169000 H     1 G3P    -0.0412 ****
  9 C2      1.804000    0.526000   -0.412000 C     1 G3P     0.4148 ****
 10 O2      2.986000    1.075000    0.128000 O     1 G3P    -0.8182 ****
 11 H5      3.492000    0.326000    0.424000 H     1 G3P     0.4218 ****
 12 H3      1.795000    0.672000   -1.494000 H     1 G3P    -0.0656 ****
 13 C3      1.794000   -0.969000   -0.188000 C     1 G3P     0.4248 ****
 14 O6      2.793000   -1.521000    0.211000 O     1 G3P    -0.6245 ****
 15 H4      0.855000   -1.483000   -0.376000 H     1 G3P     0.0746 ****
@<TRIPOS>BOND
    1     1     2 1
    2     1     3 1
    3     1     4 1
    4     1     5 1
    5     5     6 1
    6     6     7 1
    7     6     8 1
    8     6     9 1
    9     9    10 1
   10     9    12 1
   11     9    13 1
   12    10    11 1
   13    13    14 1
   14    13    15 1
@<TRIPOS>SUBSTRUCTURE
      1  G3P              1 ****               0 ****  **** 
