@<TRIPOS>MOLECULE
MOL
   27    26     1     0     0
SMALL
bcc


@<TRIPOS>ATOM
      1 C1          4.2500   -1.0710    0.6590 C.3       1 MOL      0.010400
      2 C2          3.6920    0.1310   -0.0600 C.2       1 MOL      0.553100
      3 C3          2.4080    0.7630    0.4120 C.3       1 MOL     -0.029900
      4 C4          1.2260   -0.1170    0.0010 C.3       1 MOL      0.310100
      5 C5         -0.0840    0.5830    0.3680 C.3       1 MOL      0.063100
      6 C6         -1.2660   -0.2960   -0.0430 C.3       1 MOL      0.165400
      7 O1          5.4640   -1.4820    0.0280 O.3       1 MOL     -0.640800
      8 O2          4.2750    0.5870   -1.0150 O.2       1 MOL     -0.616100
      9 O3          2.2680    2.0550   -0.1810 O.3       1 MOL     -0.642800
     10 O4          1.2660   -0.3410   -1.4110 O.3       1 MOL     -0.965800
     11 O5         -0.1240    0.8070    1.7790 O.3       1 MOL     -0.653800
     12 O6         -2.4870    0.4060    0.1940 O.3       1 MOL     -0.606200
     13 P1         -3.9350   -0.2210   -0.1260 P.3       1 MOL      1.347900
     14 O7         -4.1930   -1.4900    0.8320 O.co2     1 MOL     -0.732167
     15 O8         -5.0710    0.8890    0.1390 O.co2     1 MOL     -0.732167
     16 O9         -3.9860   -0.6510   -1.5400 O.co2     1 MOL     -0.732167
     17 H1          4.4500   -0.8120    1.6980 H         1 MOL      0.077700
     18 H2          3.5260   -1.8850    0.6200 H         1 MOL      0.077700
     19 H3          2.4290    0.8600    1.4970 H         1 MOL      0.054700
     20 H4          1.2860   -1.0730    0.5210 H         1 MOL     -0.077300
     21 H5         -0.1430    1.5380   -0.1530 H         1 MOL      0.022700
     22 H6         -1.1860   -0.5400   -1.1020 H         1 MOL      0.035200
     23 H7         -1.2560   -1.2160    0.5430 H         1 MOL      0.035200
     24 H8          5.8800   -2.2530    0.4390 H         1 MOL      0.407000
     25 H9          2.2420    2.0450   -1.1480 H         1 MOL      0.437000
     26 H10         1.2170    0.4670   -1.9390 H         1 MOL      0.425000
     27 H11        -0.0750   -0.0020    2.3070 H         1 MOL      0.408000
@<TRIPOS>BOND
     1    1    2 1   
     2    1    7 1   
     3    1   17 1   
     4    1   18 1   
     5    2    3 1   
     6    2    8 2   
     7    3    4 1   
     8    3    9 1   
     9    3   19 1   
    10    4    5 1   
    11    4   10 1   
    12    4   20 1   
    13    5    6 1   
    14    5   11 1   
    15    5   21 1   
    16    6   12 1   
    17    6   22 1   
    18    6   23 1   
    19    7   24 1   
    20    9   25 1   
    21   10   26 1   
    22   11   27 1   
    23   12   13 1   
    24   13   14 1   
    25   13   15 1   
    26   13   16 1   
@<TRIPOS>SUBSTRUCTURE
     1 MOL         1 TEMP              0 ****  ****    0 ROOT
