@<TRIPOS>MOLECULE
DPG
   19    18     1     0     0
SMALL
bcc


@<TRIPOS>ATOM
      1 O1          4.1230    1.3420    1.3060 O.co2     1 DPG     -0.926833
      2 P1          3.9340    0.3800    0.1710 P.3       1 DPG      1.381900
      3 O2          4.1180    0.9440   -1.2030 O.co2     1 DPG     -0.926833
      4 O3          4.4300   -1.0140    0.4060 O.co2     1 DPG     -0.926833
      5 O4          2.0750    0.1630    0.3210 O.3       1 DPG     -0.579500
      6 C1          1.2780   -0.6540   -0.2480 C.2       1 DPG      0.728100
      7 O5          1.4720   -1.3150   -1.2510 O.2       1 DPG     -0.708000
      8 C2         -0.0950   -0.8610    0.4530 C.3       1 DPG      0.051100
      9 O6         -0.3300   -2.2620    0.4350 O.3       1 DPG     -0.667800
     10 C3         -1.2700   -0.0950   -0.1900 C.3       1 DPG      0.197400
     11 O7         -2.4170   -0.2440    0.5670 O.3       1 DPG     -0.594200
     12 P2         -3.9520    0.2650   -0.0450 P.3       1 DPG      1.328900
     13 O8         -4.8640   -0.0630    1.1170 O.co2     1 DPG     -0.949500
     14 O9         -3.7760    1.7430   -0.3220 O.co2     1 DPG     -0.949500
     15 O10        -4.1700   -0.5790   -1.2840 O.co2     1 DPG     -0.949500
     16 H1         -0.0130   -0.5680    1.4910 H         1 DPG      0.030700
     17 H2         -0.0100   -2.5250   -0.4190 H         1 DPG      0.460000
     18 H3         -0.9890    0.9570   -0.2790 H         1 DPG      0.000700
     19 H4         -1.4080   -0.4780   -1.2010 H         1 DPG      0.000700
@<TRIPOS>BOND
     1    1    2 1   
     2    2    3 1   
     3    2    4 1   
     4    2    5 1   
     5    5    6 1   
     6    6    7 2   
     7    6    8 1   
     8    8    9 1   
     9    8   10 1   
    10    8   16 1   
    11    9   17 1   
    12   10   11 1   
    13   10   18 1   
    14   10   19 1   
    15   11   12 1   
    16   12   13 1   
    17   12   14 1   
    18   12   15 1   
@<TRIPOS>SUBSTRUCTURE
     1 DPG         1 TEMP              0 ****  ****    0 ROOT
