@<TRIPOS>MOLECULE
DPG
   19    18     1     0     1 
SMALL
USER_CHARGES
@<TRIPOS>ATOM
  1 O1      4.135000   -1.557000   -1.039000 O     1 DPG    -0.9232 ****
  2 P1      3.923000   -0.459000   -0.040000 P     1 DPG     1.3454 ****
  3 O2      4.092000   -0.839000    1.398000 O     1 DPG    -0.9232 ****
  4 O3      4.413000    0.898000   -0.446000 O     1 DPG    -0.9232 ****
  5 O4      2.065000   -0.279000   -0.241000 O     1 DPG    -0.6269 ****
  6 C1      1.254000    0.597000    0.208000 C     1 DPG     0.9021 ****
  7 O5      1.429000    1.383000    1.120000 O     1 DPG    -0.7275 ****
  8 C2     -0.110000    0.700000   -0.532000 C     1 DPG    -0.0121 ****
  9 O6     -0.355000    2.089000   -0.697000 O     1 DPG    -0.6627 ****
 10 H2     -0.049000    2.463000    0.120000 H     1 DPG     0.3731 ****
 11 H1     -0.012000    0.276000   -1.522000 H     1 DPG     0.0623 ****
 12 C3     -1.289000    0.012000    0.190000 C     1 DPG     0.2757 ****
 13 H3     -1.001000   -1.017000    0.417000 H     1 DPG    -0.0193 ****
 14 H4     -1.443000    0.522000    1.140000 H     1 DPG    -0.0193 ****
 15 O7     -2.426000    0.053000   -0.595000 O     1 DPG    -0.5336 ****
 16 P2     -3.965000   -0.386000    0.057000 P     1 DPG     1.2961 ****
 17 O9     -3.783000   -1.815000    0.524000 O     1 DPG    -0.9613 ****
 18 O10    -4.207000    0.608000    1.174000 O     1 DPG    -0.9613 ****
 19 O8     -4.863000   -0.219000   -1.150000 O     1 DPG    -0.9613 ****
@<TRIPOS>BOND
    1     1     2 1
    2     2     3 1
    3     2     4 1
    4     2     5 1
    5     5     6 1
    6     6     7 1
    7     6     8 1
    8     8     9 1
    9     8    11 1
   10     8    12 1
   11     9    10 1
   12    12    13 1
   13    12    14 1
   14    12    15 1
   15    15    16 1
   16    16    17 1
   17    16    18 1
   18    16    19 1
@<TRIPOS>SUBSTRUCTURE
      1  DPG              1 ****               0 ****  **** 
